examples/test_perturbation_outputs/pert_min_loss/pglib_opf_case3012wp_k.m
%% MATPOWER Case Format : Version 2
function mpc = pglib_opf_case3012wp_k
mpc.version = '2';

%%-----  Power Flow Data  -----%%
%% system MVA base
mpc.baseMVA = 100.0;
%% bus data
%    bus_i    type    Pd    Qd    Gs    Bs    area    Vm    Va    baseKV    zone    Vmax    Vmin
mpc.bus = [
	1	1	0.0	0.0	0.0	0.0	1	1.03	0.0	220.0	1	1.11	0.95				
	2	1	0.0	0.0	0.0	0.0	1	1.03	0.0	220.0	1	1.11	0.95				
	3	1	0.0	0.0	0.0	0.0	1	1.03	0.0	220.0	1	1.11	0.95				
	4	1	0.0	0.0	0.0	0.0	1	1.03	0.0	220.0	1	1.11	0.95				
	5	1	0.0	0.0	0.0	0.0	1	1.03	0.0	220.0	1	1.11	0.95				
	6	1	0.0	0.0	0.0	0.0	1	1.03	0.0	220.0	1	1.11	0.95				
	7	1	0.0	0.0	0.0	0.0	1	1.03	0.0	220.0	1	1.11	0.95				
	8	1	0.0	0.0	0.0	0.0	1	1.03	0.0	220.0	1	1.11	0.95				
	9	1	0.0	0.0	0.0	0.0	1	1.03	0.0	220.0	1	1.11	0.95				
	10	1	0.0	0.0	0.0	0.0	1	1.03	0.0	220.0	1	1.11	0.95				
	11	1	0.0	0.0	0.0	0.0	1	1.0	0.0	400.0	1	1.05	0.95				
	12	1	0.0	0.0	0.0	0.0	1	1.0	0.0	400.0	1	1.05	0.95				
	13	1	0.0	0.0	0.0	0.0	1	1.0	0.0	400.0	1	1.05	0.95				
	14	1	0.0	0.0	0.0	0.0	1	1.03	0.0	220.0	1	1.11	0.95				
	15	1	0.0	0.0	0.0	0.0	1	1.03	0.0	220.0	1	1.11	0.95				
	16	1	0.0	0.0	0.0	0.0	1	1.03	0.0	220.0	1	1.11	0.95				
	17	1	0.0	0.0	0.0	0.0	1	1.03	0.0	220.0	1	1.11	0.95				
	18	1	0.0	0.0	0.0	0.0	1	1.03	0.0	220.0	1	1.11	0.95				
	19	1	0.0	0.0	0.0	0.0	1	1.0	0.0	400.0	1	1.05	0.95				
	20	1	0.0	0.0	0.0	0.0	1	1.0	0.0	400.0	1	1.05	0.95				
	21	1	0.0	0.0	0.0	0.0	1	1.0	0.0	400.0	1	1.05	0.95				
	22	1	0.0	0.0	0.0	0.0	1	1.0	0.0	400.0	1	1.05	0.95				
	23	1	0.0	0.0	0.0	0.0	1	1.0	0.0	400.0	1	1.05	0.95				
	24	2	10.05	20.1	0.0	0.0	1	1.03	0.0	220.0	1	1.11	0.95				
	25	2	10.05	20.1	0.0	0.0	1	1.03	0.0	220.0	1	1.11	0.95				
	26	1	0.0	0.0	0.0	0.0	1	1.03	0.0	220.0	1	1.11	0.95				
	27	1	0.0	0.0	0.0	0.0	1	1.03	0.0	220.0	1	1.11	0.95				
	28	1	0.0	0.0	0.0	0.0	1	1.03	0.0	220.0	1	1.11	0.95				
	29	1	0.0	0.0	0.0	0.0	1	1.03	0.0	220.0	1	1.11	0.95				
	30	1	0.0	0.0	0.0	0.0	1	1.03	0.0	220.0	1	1.11	0.95				
	31	1	0.0	0.0	0.0	0.0	1	1.03	0.0	220.0	1	1.11	0.95				
	32	1	0.0	0.0	0.0	0.0	1	1.03	0.0	220.0	1	1.11	0.95				
	33	1	0.0	0.0	0.0	0.0	1	1.03	0.0	220.0	1	1.11	0.95				
	34	1	0.0	0.0	0.0	0.0	1	1.0	0.0	400.0	1	1.05	0.95				
	35	1	0.0	0.0	0.0	0.0	1	1.0	0.0	400.0	1	1.05	0.95				
	36	1	0.0	0.0	0.0	0.0	1	1.0	0.0	400.0	1	1.05	0.95				
	37	3	48.68	86.21	0.0	0.0	1	1.03	0.0	220.0	1	1.11	0.95				
	38	2	54.54	89.93	0.0	0.0	1	1.03	0.0	220.0	1	1.11	0.95				
	39	2	20.1	40.19	0.0	0.0	1	1.03	0.0	220.0	1	1.11	0.95				
	40	2	60.29	120.57	0.0	0.0	1	1.0	0.0	400.0	1	1.05	0.95				
	41	2	60.29	120.57	0.0	0.0	1	1.0	0.0	400.0	1	1.05	0.95				
	42	1	0.0	0.0	0.0	0.0	1	1.03	0.0	220.0	1	1.11	0.95				
	43	1	0.0	0.0	0.0	0.0	1	1.03	0.0	220.0	1	1.11	0.95				
	44	1	0.0	0.0	0.0	0.0	1	1.0	0.0	400.0	1	1.05	0.95				
	45	1	0.0	0.0	0.0	0.0	1	1.0	0.0	400.0	1	1.05	0.95				
	46	1	0.0	0.0	0.0	0.0	1	1.03	0.0	220.0	1	1.11	0.95				
	47	1	0.0	0.0	0.0	0.0	1	1.03	0.0	220.0	1	1.11	0.95				
	48	1	0.0	0.0	0.0	0.0	1	1.03	0.0	220.0	1	1.11	0.95				
	49	1	0.0	0.0	0.0	0.0	1	1.03	0.0	220.0	2	1.11	0.95				
	50	1	0.0	0.0	0.0	0.0	1	1.03	0.0	220.0	2	1.11	0.95				
	51	1	0.0	0.0	0.0	0.0	1	1.03	0.0	220.0	2	1.11	0.95				
	52	1	0.0	0.0	0.0	0.0	1	1.03	0.0	220.0	2	1.11	0.95				
	53	1	0.0	0.0	0.0	0.0	1	1.03	0.0	220.0	2	1.11	0.95				
	54	1	3.2300000000000004	1.0	0.0	0.0	1	1.03	0.0	220.0	2	1.11	0.95				
	55	1	0.0	0.0	0.0	0.0	1	1.03	0.0	220.0	2	1.11	0.95				
	56	1	0.0	0.0	0.0	0.0	1	1.0	0.0	400.0	2	1.05	0.95				
	57	2	26.119999999999997	60.29	0.0	0.0	1	1.03	0.0	220.0	2	1.11	0.95				
	58	2	54.26	120.57	0.0	0.0	1	1.03	0.0	220.0	2	1.11	0.95				
	59	2	13.059999999999999	30.14	0.0	0.0	1	1.03	0.0	220.0	2	1.11	0.95				
	60	2	26.119999999999997	50.24000000000001	0.0	0.0	1	1.0	0.0	400.0	2	1.05	0.95				
	61	2	26.119999999999997	50.24000000000001	0.0	0.0	1	1.0	0.0	400.0	2	1.05	0.95				
	62	1	0.0	0.0	0.0	0.0	1	1.03	0.0	220.0	2	1.11	0.95				
	63	1	0.0	0.0	0.0	0.0	1	1.0	0.0	400.0	2	1.05	0.95				
	64	1	0.0	0.0	0.0	0.0	1	1.0	0.0	400.0	2	1.05	0.95				
	65	1	0.0	0.0	0.0	0.0	1	1.0	0.0	400.0	2	1.05	0.95				
	66	1	0.0	0.0	0.0	0.0	1	1.03	0.0	220.0	2	1.11	0.95				
	67	1	0.0	0.0	0.0	0.0	1	1.03	0.0	220.0	2	1.11	0.95				
	68	1	0.0	0.0	0.0	0.0	1	1.0	0.0	400.0	2	1.05	0.95				
	69	1	0.0	0.0	0.0	0.0	1	1.0	0.0	400.0	2	1.05	0.95				
	70	2	13.059999999999999	30.14	0.0	0.0	1	1.03	0.0	220.0	2	1.11	0.95				
	71	2	13.059999999999999	30.14	0.0	0.0	1	1.03	0.0	220.0	2	1.11	0.95				
	72	2	13.059999999999999	30.14	0.0	0.0	1	1.0	0.0	400.0	2	1.05	0.95				
	73	2	26.119999999999997	60.29	0.0	0.0	1	1.0	0.0	400.0	2	1.05	0.95				
	74	2	149.71	60.29	0.0	0.0	1	1.03	0.0	220.0	2	1.11	0.95				
	75	1	29.14	10.05	0.0	0.0	1	1.03	0.0	220.0	2	1.11	0.95				
	76	1	0.0	0.0	0.0	0.0	1	1.03	0.0	220.0	2	1.11	0.95				
	77	1	0.0	0.0	0.0	0.0	1	1.03	0.0	220.0	2	1.11	0.95				
	78	1	0.0	0.0	0.0	0.0	1	1.03	0.0	220.0	2	1.11	0.95				
	79	1	0.0	0.0	0.0	0.0	1	1.03	0.0	220.0	2	1.11	0.95				
	80	1	0.0	0.0	0.0	0.0	1	1.0	0.0	400.0	2	1.05	0.95				
	81	1	0.0	0.0	0.0	0.0	1	1.0	0.0	400.0	2	1.05	0.95				
	82	1	0.0	0.0	0.0	0.0	1	1.03	0.0	220.0	2	1.11	0.95				
	83	1	0.0	0.0	0.0	0.0	1	1.03	0.0	220.0	2	1.11	0.95				
	84	1	0.0	0.0	0.0	0.0	1	1.03	0.0	220.0	2	1.11	0.95				
	85	1	0.0	0.0	0.0	0.0	1	1.03	0.0	220.0	3	1.11	0.95				
	86	1	9.35	0.0	0.0	0.0	1	1.03	0.0	220.0	3	1.11	0.95				
	87	1	8.18	0.0	0.0	0.0	1	1.03	0.0	220.0	3	1.11	0.95				
	88	1	0.0	0.0	0.0	0.0	1	1.03	0.0	220.0	3	1.11	0.95				
	89	1	0.0	0.0	0.0	0.0	1	1.03	0.0	220.0	3	1.11	0.95				
	90	1	0.0	0.0	0.0	0.0	1	1.03	0.0	220.0	3	1.11	0.95				
	91	1	0.0	0.0	0.0	0.0	1	1.03	0.0	220.0	3	1.11	0.95				
	92	1	0.0	0.0	0.0	0.0	1	1.03	0.0	220.0	3	1.11	0.95				
	93	1	0.0	0.0	0.0	0.0	1	1.03	0.0	220.0	3	1.11	0.95				
	94	2	28.13	70.33	0.0	0.0	1	1.03	0.0	220.0	3	1.11	0.95				
	95	2	42.2	103.49	0.0	0.0	1	1.03	0.0	220.0	3	1.11	0.95				
	96	1	7.719999999999999	-24.99	0.0	0.0	1	1.03	0.0	220.0	3	1.11	0.95				
	97	1	0.0	0.0	0.0	0.0	1	1.03	0.0	220.0	3	1.11	0.95				
	98	2	32.15	142.68	0.0	0.0	1	1.0	0.0	400.0	3	1.05	0.95				
	99	1	0.0	0.0	0.0	0.0	1	1.0	0.0	400.0	3	1.05	0.95				
	100	1	0.0	0.0	0.0	0.0	1	1.03	0.0	220.0	3	1.11	0.95				
	101	1	0.0	0.0	0.0	0.0	1	1.03	0.0	220.0	3	1.11	0.95				
	102	1	0.0	0.0	0.0	0.0	1	1.03	0.0	220.0	3	1.11	0.95				
	103	1	45.11	7.9399999999999995	0.0	0.0	1	1.03	0.0	220.0	3	1.11	0.95				
	104	1	0.0	0.0	0.0	0.0	1	1.03	0.0	220.0	3	1.11	0.95				
	105	1	0.0	0.0	0.0	0.0	1	1.03	0.0	220.0	3	1.11	0.95				
	106	1	0.0	0.0	0.0	0.0	1	1.03	0.0	220.0	3	1.11	0.95				
	107	1	0.0	0.0	0.0	0.0	1	1.03	0.0	220.0	3	1.11	0.95				
	108	1	0.0	0.0	0.0	0.0	1	1.03	0.0	220.0	3	1.11	0.95				
	109	1	0.0	0.0	0.0	0.0	1	1.0	0.0	400.0	3	1.05	0.95				
	110	1	0.0	0.0	0.0	0.0	1	1.0	0.0	400.0	3	1.05	0.95				
	111	1	0.0	0.0	0.0	0.0	1	1.03	0.0	220.0	3	1.11	0.95				
	112	1	0.0	0.0	0.0	0.0	1	1.03	0.0	220.0	3	1.11	0.95				
	113	1	0.0	0.0	0.0	0.0	1	1.03	0.0	220.0	3	1.11	0.95				
	114	1	0.0	0.0	0.0	0.0	1	1.03	0.0	220.0	3	1.11	0.95				
	115	2	29.359999999999996	18.51	0.0	0.0	1	1.03	0.0	220.0	3	1.11	0.95				
	116	1	0.0	0.0	0.0	0.0	1	1.03	0.0	220.0	3	1.11	0.95				
	117	1	0.0	0.0	0.0	0.0	1	1.03	0.0	220.0	3	1.11	0.95				
	118	1	0.0	0.0	0.0	0.0	1	1.03	0.0	220.0	3	1.11	0.95				
	119	1	0.0	0.0	0.0	0.0	1	1.03	0.0	220.0	3	1.11	0.95				
	120	1	0.0	0.0	0.0	0.0	1	1.03	0.0	220.0	3	1.11	0.95				
	121	1	0.0	0.0	0.0	0.0	1	1.03	0.0	220.0	3	1.11	0.95				
	122	2	10.05	44.21	0.0	0.0	1	1.03	0.0	220.0	3	1.11	0.95				
	123	2	7.03	18.09	0.0	0.0	1	1.03	0.0	220.0	3	1.11	0.95				
	124	2	8.04	21.1	0.0	0.0	1	1.03	0.0	220.0	3	1.11	0.95				
	125	1	0.0	0.0	0.0	0.0	1	1.03	0.0	220.0	3	1.11	0.95				
	126	1	71.54	7.9399999999999995	0.0	0.0	1	1.03	0.0	220.0	3	1.11	0.95				
	127	1	0.0	0.0	0.0	0.0	1	1.03	0.0	220.0	3	1.11	0.95				
	128	1	0.0	0.0	0.0	0.0	1	1.03	0.0	220.0	3	1.11	0.95				
	129	1	0.0	0.0	0.0	0.0	1	1.03	0.0	220.0	3	1.11	0.95				
	130	1	0.0	0.0	0.0	0.0	1	1.03	0.0	220.0	3	1.11	0.95				
	131	1	0.0	0.0	0.0	0.0	1	1.03	0.0	220.0	3	1.11	0.95				
	132	1	0.0	0.0	0.0	0.0	1	1.0	0.0	400.0	3	1.05	0.95				
	133	1	0.0	0.0	0.0	0.0	1	1.0	0.0	400.0	3	1.05	0.95				
	134	1	0.0	0.0	0.0	0.0	1	1.03	0.0	220.0	3	1.11	0.95				
	135	2	9.04	20.1	0.0	0.0	1	1.03	0.0	220.0	3	1.11	0.95				
	136	2	6.03	15.07	0.0	0.0	1	1.03	0.0	220.0	3	1.11	0.95				
	137	1	0.0	0.0	0.0	0.0	1	1.03	0.0	220.0	3	1.11	0.95				
	138	1	0.0	0.0	0.0	0.0	1	1.0	0.0	400.0	3	1.05	0.95				
	139	1	0.0	0.0	0.0	0.0	1	1.0	0.0	400.0	3	1.05	0.95				
	140	1	0.0	0.0	0.0	0.0	1	1.0	0.0	400.0	3	1.05	0.95				
	141	1	0.0	0.0	0.0	0.0	1	1.0	0.0	400.0	3	1.05	0.95				
	142	1	0.0	0.0	0.0	0.0	1	1.03	0.0	220.0	3	1.11	0.95				
	143	1	0.0	0.0	0.0	0.0	1	1.03	0.0	220.0	3	1.11	0.95				
	144	2	18.34	15.86	0.0	0.0	1	1.03	0.0	220.0	3	1.11	0.95				
	145	2	41.01	43.07	0.0	0.0	1	1.03	0.0	220.0	3	1.11	0.95				
	146	2	28.13	66.31	0.0	0.0	1	1.0	0.0	400.0	3	1.05	0.95				
	147	1	0.0	0.0	0.0	0.0	1	1.0	0.0	400.0	3	1.05	0.95				
	148	1	0.0	0.0	0.0	0.0	1	1.03	0.0	220.0	3	1.11	0.95				
	149	1	0.0	0.0	0.0	0.0	1	1.03	0.0	220.0	3	1.11	0.95				
	150	1	0.0	0.0	0.0	0.0	1	1.03	0.0	220.0	3	1.11	0.95				
	151	1	0.0	0.0	0.0	0.0	1	1.03	0.0	220.0	3	1.11	0.95				
	152	1	0.0	0.0	0.0	0.0	1	1.03	0.0	220.0	3	1.11	0.95				
	153	1	0.0	0.0	0.0	0.0	1	1.03	0.0	220.0	3	1.11	0.95				
	154	2	7.84	20.1	0.0	0.0	1	1.03	0.0	220.0	4	1.11	0.95				
	155	2	8.04	20.1	0.0	0.0	1	1.03	0.0	220.0	4	1.11	0.95				
	156	1	0.0	0.0	0.0	0.0	1	1.03	0.0	220.0	4	1.11	0.95				
	157	1	0.0	0.0	0.0	0.0	1	1.03	0.0	220.0	4	1.11	0.95				
	158	1	0.0	0.0	0.0	0.0	1	1.03	0.0	220.0	4	1.11	0.95				
	159	1	0.0	0.0	0.0	0.0	1	1.03	0.0	220.0	4	1.11	0.95				
	160	1	0.0	0.0	0.0	0.0	1	1.03	0.0	220.0	4	1.11	0.95				
	161	1	0.0	0.0	0.0	0.0	1	1.0	0.0	400.0	4	1.05	0.95				
	162	1	0.0	0.0	0.0	0.0	1	1.0	0.0	400.0	4	1.05	0.95				
	163	1	0.0	0.0	0.0	0.0	1	1.03	0.0	220.0	4	1.11	0.95				
	164	1	0.0	0.0	0.0	0.0	1	1.03	0.0	220.0	4	1.11	0.95				
	165	1	0.0	0.0	0.0	0.0	1	1.03	0.0	220.0	4	1.11	0.95				
	166	1	0.0	0.0	0.0	0.0	1	1.03	0.0	220.0	4	1.11	0.95				
	167	1	0.0	0.0	0.0	0.0	1	1.03	0.0	220.0	4	1.11	0.95				
	168	1	0.0	0.0	0.0	0.0	1	1.03	0.0	220.0	4	1.11	0.95				
	169	1	0.0	0.0	0.0	0.0	1	1.03	0.0	220.0	4	1.11	0.95				
	170	1	0.0	0.0	0.0	0.0	1	1.03	0.0	220.0	4	1.11	0.95				
	171	1	0.0	0.0	0.0	0.0	1	1.03	0.0	220.0	4	1.11	0.95				
	172	2	12.06	30.14	0.0	0.0	1	1.03	0.0	220.0	4	1.11	0.95				
	173	1	9.39	2.43	0.0	0.0	1	1.03	0.0	220.0	4	1.11	0.95				
	174	2	12.06	30.14	0.0	0.0	1	1.0	0.0	400.0	4	1.05	0.95				
	175	2	24.11	60.29	0.0	0.0	1	1.0	0.0	400.0	4	1.05	0.95				
	176	1	0.0	0.0	0.0	0.0	1	1.03	0.0	220.0	4	1.11	0.95				
	177	1	0.0	0.0	0.0	0.0	1	1.03	0.0	220.0	4	1.11	0.95				
	178	1	0.0	0.0	0.0	0.0	1	1.03	0.0	220.0	4	1.11	0.95				
	179	1	0.0	0.0	0.0	0.0	1	1.03	0.0	220.0	4	1.11	0.95				
	180	2	26.119999999999997	64.3	0.0	0.0	1	1.03	0.0	220.0	4	1.11	0.95				
	181	2	26.119999999999997	64.3	0.0	0.0	1	1.03	0.0	220.0	4	1.11	0.95				
	182	2	26.119999999999997	64.51	0.0	0.0	1	1.03	0.0	220.0	4	1.11	0.95				
	183	2	26.119999999999997	64.51	0.0	0.0	1	1.0	0.0	400.0	4	1.05	0.95				
	184	1	0.0	0.0	0.0	0.0	1	1.0	0.0	400.0	4	1.05	0.95				
	185	1	0.0	0.0	0.0	0.0	1	1.03	0.0	220.0	4	1.11	0.95				
	186	1	0.0	0.0	0.0	0.0	1	1.03	0.0	220.0	4	1.11	0.95				
	187	1	0.0	0.0	0.0	0.0	1	1.0	0.0	400.0	4	1.05	0.95				
	188	1	0.0	0.0	0.0	0.0	1	1.0	0.0	400.0	4	1.05	0.95				
	189	1	0.0	0.0	0.0	0.0	1	1.0	0.0	400.0	4	1.05	0.95				
	190	1	0.0	0.0	0.0	0.0	1	1.0	0.0	400.0	4	1.05	0.95				
	191	2	12.06	30.14	0.0	0.0	1	1.03	0.0	220.0	4	1.11	0.95				
	192	2	14.66	30.65	0.0	0.0	1	1.03	0.0	220.0	4	1.11	0.95				
	193	2	38.18	64.3	0.0	0.0	1	1.0	0.0	400.0	4	1.05	0.95				
	194	1	0.0	0.0	0.0	0.0	1	1.03	0.0	220.0	4	1.11	0.95				
	195	1	0.0	0.0	0.0	0.0	1	1.03	0.0	220.0	4	1.11	0.95				
	196	1	0.0	0.0	0.0	0.0	1	1.03	0.0	220.0	4	1.11	0.95				
	197	1	0.0	0.0	0.0	0.0	1	1.03	0.0	220.0	4	1.11	0.95				
	198	1	0.0	0.0	0.0	0.0	1	1.03	0.0	220.0	4	1.11	0.95				
	199	1	0.0	0.0	0.0	0.0	1	1.03	0.0	220.0	4	1.11	0.95				
	200	1	0.0	0.0	0.0	0.0	1	1.0	0.0	400.0	4	1.05	0.95				
...
];

%% generator data
%    bus    Pg    Qg    Qmax    Qmin    Vg    mBase    status    Pmax    Pmin    Pc1    Pc2    Qc1min    Qc1max    Qc2min    Qc2max    ramp_agc    ramp_10    ramp_30    ramp_q    apf
mpc.gen = [
	24	165.5	45.5	140.0	-49.0	1.03	235.3	1	221.0	110.00000000000001															
	25	167.5	51.0	124.0	-22.0	1.03	235.3	1	200.0	135.0															
	37	305.0	85.5	190.0	-19.0	1.03	426.0	1	370.0	240.0															
	37	305.0	85.5	190.0	-19.0	1.03	426.0	1	370.0	240.0															
	38	305.0	85.5	190.0	-19.0	1.03	426.0	1	370.0	240.0															
	38	305.0	85.5	190.0	-19.0	1.03	426.0	1	370.0	240.0															
	39	305.0	85.5	190.0	-19.0	1.03	426.0	1	370.0	240.0															
	40	305.0	85.5	190.0	-19.0	1.0	426.0	1	370.0	240.0															
	40	305.0	85.5	190.0	-19.0	1.0	426.0	1	370.0	240.0															
	40	305.0	85.5	190.0	-19.0	1.0	426.0	1	370.0	240.0															
	41	305.0	85.5	190.0	-19.0	1.0	426.0	1	370.0	240.0															
	41	305.0	85.5	190.0	-19.0	1.0	426.0	1	370.0	240.0															
	41	305.0	85.5	190.0	-19.0	1.0	426.0	1	370.0	240.0															
	57	162.5	59.5	152.0	-33.0	1.03	235.0	1	215.0	110.00000000000001															
	57	172.5	59.5	152.0	-33.0	1.03	235.0	1	220.00000000000003	125.0															
	58	175.0	57.99999999999999	149.0	-33.0	1.03	235.0	1	225.0	125.0															
	58	0.0	0.0	149.0	-33.0	1.03	235.0	0	225.0	120.0															
	58	167.5	57.99999999999999	149.0	-33.0	1.03	235.0	1	225.0	110.00000000000001															
	59	167.5	57.99999999999999	149.0	-33.0	1.03	235.0	1	225.0	110.00000000000001															
	60	395.0	158.0	363.0	-47.0	1.0	588.0	1	535.0	254.99999999999997															
	61	405.0	124.0	348.0	-100.0	1.0	588.0	1	560.0	250.0															
	70	177.0	47.0	105.0	-11.0	1.03	235.0	1	225.0	129.0															
	71	177.0	47.0	105.0	-11.0	1.03	235.0	1	225.0	129.0															
	71	0.0	0.0	99.0	-10.0	1.03	235.0	0	225.0	129.0															
	72	0.0	0.0	105.0	-11.0	1.0	235.0	0	225.0	129.0															
	72	177.0	47.0	105.0	-11.0	1.0	235.0	1	225.0	129.0															
	73	177.0	44.5	99.0	-10.0	1.0	235.0	1	225.0	129.0															
	73	177.0	47.0	105.0	-11.0	1.0	235.0	1	225.0	129.0															
	74	56.00000000000001	30.0	60.0	0.0	1.03	120.0	1	112.00000000000001	0.0															
	94	172.5	62.5	131.0	-6.0	1.03	270.6	1	220.00000000000003	125.0															
	94	182.5	62.5	131.0	-6.0	1.03	270.6	1	225.0	140.0															
	95	177.5	62.5	131.0	-6.0	1.03	270.6	1	225.0	130.0															
	95	175.0	62.5	131.0	-6.0	1.03	270.6	1	225.0	125.0															
	95	177.5	62.5	131.0	-6.0	1.03	270.6	1	225.0	130.0															
	98	301.5	91.0	213.0	-31.0	1.0	426.0	1	383.0	220.00000000000003															
	98	300.0	44.0	119.0	-31.0	1.0	435.3	1	380.0	220.00000000000003															
	115	6.0	0.0	0.0	0.0	1.03	12.0	1	12.0	0.0															
	115	3.0	0.0	0.0	0.0	1.03	6.0	1	6.0	0.0															
	121	0.0	0.0	120.0	-10.0	1.03	270.6	0	225.0	120.0															
	122	172.5	55.00000000000001	120.0	-10.0	1.03	270.6	1	225.0	120.0															
	123	95.0	36.0	73.0	-1.0	1.03	150.0	1	120.0	70.0															
	124	95.0	36.0	73.0	-1.0	1.03	150.0	1	120.0	70.0															
	134	0.0	0.0	80.0	0.0	1.03	150.0	0	120.0	70.0															
	135	95.0	40.0	80.0	0.0	1.03	150.0	1	120.0	70.0															
	136	95.0	15.5	31.0	0.0	1.03	117.5	1	110.00000000000001	80.0															
	144	175.0	50.0	135.0	-35.0	1.03	270.6	1	215.0	135.0															
	145	175.0	50.0	135.0	-35.0	1.03	270.6	1	215.0	135.0															
	145	180.0	52.5	140.0	-35.0	1.03	270.6	1	225.0	135.0															
	146	180.0	52.0	140.0	-36.0	1.0	270.6	1	225.0	135.0															
	146	177.5	50.5	137.0	-36.0	1.0	270.6	1	220.00000000000003	135.0															
	152	0.0	0.0	72.0	-28.999999999999996	1.03	150.0	0	135.0	-135.0															
	152	0.0	0.0	72.0	-28.999999999999996	1.03	150.0	0	135.0	-135.0															
	153	0.0	0.0	72.0	-28.999999999999996	1.03	150.0	0	135.0	-135.0															
	153	0.0	0.0	72.0	-28.999999999999996	1.03	150.0	0	135.0	-135.0															
	154	107.0	35.0	85.0	-15.0	1.03	150.0	1	120.0	94.0															
	155	107.0	35.0	85.0	-15.0	1.03	150.0	1	120.0	94.0															
	155	0.0	0.0	85.0	-15.0	1.03	150.0	0	120.0	94.0															
	169	0.0	0.0	25.0	0.0	1.03	51.4	0	50.0	40.0															
	170	0.0	0.0	90.0	-15.0	1.03	150.0	0	120.0	80.0															
	170	0.0	0.0	25.0	0.0	1.03	51.4	0	50.0	45.0															
	172	166.0	44.0	119.0	-31.0	1.03	252.4	1	231.99999999999997	100.0															
	172	0.0	0.0	111.00000000000001	-21.0	1.03	237.5	0	204.99999999999997	135.0															
	173	0.0	0.0	111.00000000000001	-21.0	1.03	237.5	0	204.99999999999997	135.0															
	173	0.0	0.0	102.0	-15.0	1.03	252.4	0	222.00000000000003	90.0															
	174	156.0	43.5	102.0	-15.0	1.0	252.4	1	222.00000000000003	90.0															
	175	156.0	43.5	102.0	-15.0	1.0	252.4	1	222.00000000000003	90.0															
	175	166.0	41.5	93.0	-10.0	1.0	252.4	1	231.99999999999997	100.0															
	180	182.5	46.0	127.0	-35.0	1.03	287.3	1	261.0	104.0															
	180	182.5	46.0	127.0	-35.0	1.03	287.3	1	261.0	104.0															
	181	163.0	43.0	103.0	-17.0	1.03	238.4	1	206.0	120.0															
	181	182.5	46.0	127.0	-35.0	1.03	287.3	1	261.0	104.0															
	182	164.5	53.5	145.0	-38.0	1.03	263.9	1	235.0	94.0															
	182	164.5	53.5	145.0	-38.0	1.03	263.9	1	235.0	94.0															
	183	163.0	43.0	103.0	-17.0	1.0	238.4	1	206.0	120.0															
	183	163.0	43.0	103.0	-17.0	1.0	238.4	1	206.0	120.0															
	191	175.0	40.5	104.0	-23.0	1.03	233.2	1	200.0	150.0															
	192	175.0	40.5	104.0	-23.0	1.03	233.2	1	200.0	150.0															
	192	0.0	0.0	104.0	-23.0	1.03	233.2	0	200.0	145.0															
	192	0.0	0.0	104.0	-23.0	1.03	233.2	0	200.0	145.0															
	193	336.0	17.5	294.0	-259.0	1.0	464.0	1	463.99999999999994	208.0															
	208	132.0	50.0	100.0	0.0	1.03	218.3	1	188.0	76.0															
	240	-10.5	21.5	105.0	-62.0	1.0	209.0	1	179.0	-200.0															
	240	-10.5	21.5	105.0	-62.0	1.0	209.0	1	179.0	-200.0															
	240	0.0	0.0	160.0	-100.0	1.0	209.0	0	179.0	-200.0															
	241	-10.5	30.0	160.0	-100.0	1.0	209.0	1	179.0	-200.0															
	244	166.25	50.0	100.0	0.0	1.03	177.1	1	220.00000000000003	112.5															
	254	39.0	10.0	20.0	0.0	1.035	78.8	1	55.00000000000001	23.0															
	254	37.5	10.0	20.0	0.0	1.035	68.8	1	50.0	25.0															
	254	37.5	10.0	20.0	0.0	1.035	68.8	1	50.0	25.0															
	254	15.0	10.0	20.0	0.0	1.035	27.6	1	23.0	7.000000000000001															
	267	1.275	0.5	1.0	0.0	1.035	0.7	1	2.1	0.45000000000000007															
	268	1.275	0.5	1.0	0.0	1.035	0.7	1	2.1	0.45000000000000007															
	278	0.0	0.0	5.0	0.0	1.035	10.3	0	7.15	5.85															
	279	0.0	0.0	5.0	0.0	1.035	10.3	0	7.15	5.85															
	295	3.0	1.875	3.75	0.0	1.035	5.0	1	5.0	1.0															
	295	3.0	1.875	3.75	0.0	1.035	5.0	1	5.0	1.0															
	295	3.0	1.875	3.75	0.0	1.035	5.0	1	5.0	1.0															
	295	3.0	1.875	3.75	0.0	1.035	5.0	1	5.0	1.0															
	310	305.0	85.5	190.0	-19.0	1.035	426.0	1	370.0	240.0															
	316	0.0	0.0	2.0	0.0	1.035	4.0	0	5.73	1.0															
	316	0.0	0.0	2.0	0.0	1.035	4.0	0	5.73	1.0															
	376	6.0	2.5	5.0	0.0	1.035	8.4	1	6.6000000000000005	5.4															
	379	0.6	0.5	1.0	0.0	1.035	0.9	1	0.9000000000000001	0.3															
	379	0.6	0.5	1.0	0.0	1.035	0.9	1	0.9000000000000001	0.3															
	379	0.6	0.5	1.0	0.0	1.035	0.9	1	0.9000000000000001	0.3															
	383	19.0	3.5000000000000004	7.000000000000001	0.0	1.035	31.3	1	27.0	11.0															
	383	20.5	3.5000000000000004	7.000000000000001	0.0	1.035	39.0	1	30.0	11.0															
	383	19.5	3.0	6.0	0.0	1.035	40.6	1	30.0	9.0															
	384	37.5	7.5	15.0	0.0	1.035	68.8	1	55.00000000000001	20.0															
	384	37.5	7.5	15.0	0.0	1.035	68.8	1	55.00000000000001	20.0															
	385	25.0	7.5	15.0	0.0	1.035	48.5	1	40.0	10.0															
	385	37.5	7.5	15.0	0.0	1.035	68.8	1	55.00000000000001	20.0															
	387	37.5	10.0	20.0	0.0	1.035	68.8	1	50.0	25.0															
	387	77.5	10.0	20.0	0.0	1.035	147.0	1	100.0	55.00000000000001															
	388	42.5	20.0	40.0	0.0	1.035	68.8	1	60.0	25.0															
	399	2.375	1.5	3.0	0.0	1.035	3.8	1	2.75	2.0															
	433	1.5	0.5	1.0	0.0	1.035	1.9	1	1.6500000000000001	1.35															
	455	33.25	17.5	56.99999999999999	-22.0	1.035	68.8	1	51.5	15.0															
	456	35.0	17.5	56.99999999999999	-22.0	1.035	68.8	1	55.00000000000001	15.0															
	457	35.0	17.5	56.99999999999999	-22.0	1.035	68.8	1	55.00000000000001	15.0															
	457	40.0	21.5	71.0	-28.000000000000004	1.035	87.5	1	77.0	3.0															
	458	35.0	17.5	56.99999999999999	-22.0	1.035	68.8	1	55.00000000000001	15.0															
	458	35.0	17.5	56.99999999999999	-22.0	1.035	68.8	1	55.00000000000001	15.0															
	478	173.0	45.0	137.0	-47.0	1.035	235.3	1	225.99999999999997	120.0															
	478	18.5	6.0	12.0	0.0	1.035	48.5	1	25.0	12.0															
	479	13.5	6.0	12.0	0.0	1.035	48.5	1	17.0	10.0															
	482	4.0	1.0	2.0	0.0	1.035	5.6	1	4.4	3.6000000000000005															
	500	0.17	0.1	0.2	0.0	1.035	0.4	1	0.34	0.0															
	522	4.8	2.0	4.0	0.0	1.035	8.4	1	6.6000000000000005	3.0															
	527	3.1	1.5	3.0	0.0	1.035	4.6	1	3.4099999999999997	2.79															
	532	3.75	4.25	4.7	3.8	1.035	6.5	1	6.5	1.0															
	532	3.75	4.25	4.7	3.8	1.035	6.5	1	6.5	1.0															
	532	3.75	4.25	4.7	3.8	1.035	6.5	1	6.5	1.0															
	543	2.7	1.0	2.0	0.0	1.035	4.1	1	2.97	2.43															
	572	0.0	0.0	2.0	0.0	1.035	4.6	0	3.52	2.88															
	597	1.35	0.35	0.7	0.0	1.035	1.9	1	1.7000000000000002	1.0															
	597	0.0	0.0	0.7	0.0	1.035	1.9	0	1.7000000000000002	1.0															
	603	3.7000000000000006	1.5	3.0	0.0	1.035	5.6	1	4.4	3.0															
	670	44.5	18.5	35.0	2.0	1.035	62.5	1	52.0	37.0															
	670	20.0	12.5	23.0	2.0	1.035	37.5	1	30.0	10.0															
	670	77.5	45.5	85.0	6.0	1.035	150.0	1	105.0	50.0															
	670	77.5	45.5	85.0	6.0	1.035	150.0	1	105.0	50.0															
	671	20.0	12.5	23.0	2.0	1.035	37.5	1	30.0	10.0															
	671	20.0	12.5	23.0	2.0	1.035	37.5	1	30.0	10.0															
	671	20.0	13.5	25.0	2.0	1.035	37.5	1	30.0	10.0															
	671	96.5	45.5	85.0	6.0	1.035	150.0	1	125.0	68.0															
	671	77.5	45.5	85.0	6.0	1.035	150.0	1	105.0	50.0															
	692	1.4	0.35	0.7	0.0	1.035	1.9	1	1.54	1.26															
	694	0.7	0.5	1.0	0.0	1.035	3.8	1	1.4	0.0															
	700	22.0	10.0	18.0	2.0	1.035	37.5	1	35.0	9.0															
	700	14.499999999999998	16.0	30.0	2.0	1.035	37.5	1	20.0	9.0															
	701	22.0	10.0	18.0	2.0	1.035	37.5	1	35.0	9.0															
	701	22.0	10.0	18.0	2.0	1.035	37.5	1	35.0	9.0															
	701	22.0	10.0	18.0	2.0	1.035	37.5	1	35.0	9.0															
	701	63.5	35.5	65.0	6.0	1.035	121.3	1	97.0	30.0															
	702	22.0	10.0	18.0	2.0	1.035	37.5	1	35.0	9.0															
	702	19.5	10.0	18.0	2.0	1.035	37.5	1	30.0	9.0															
	702	18.5	8.0	14.000000000000002	2.0	1.035	31.5	1	28.000000000000004	9.0															
	735	4.5	2.0	4.0	0.0	1.035	5.3	1	8.0	1.0															
	735	1.5	1.0	2.0	0.0	1.035	2.0	1	2.0	1.0															
	752	4.0	2.35	4.5	0.2	1.035	5.8	1	4.4	3.6000000000000005															
	766	1.35	0.0	0.0	0.0	1.035	5.8	1	2.7	0.0															
	775	2.45	0.0	0.0	0.0	1.035	4.0	1	4.9	0.0															
	798	46.5	15.0	30.0	0.0	1.035	65.0	1	93.0	0.0															
	798	17.95	15.0	30.0	0.0	1.035	65.0	1	35.9	0.0															
	801	0.0	0.0	0.0	0.0	1.035	12.4	0	2.5	0.0															
	808	3.0	0.0	0.0	0.0	1.035	4.7	1	6.0	0.0															
	809	3.0	0.0	0.0	0.0	1.035	5.8	1	6.0	0.0															
	846	177.5	57.99999999999999	149.0	-33.0	1.035	235.0	1	225.0	130.0															
	847	167.5	57.99999999999999	149.0	-33.0	1.035	235.0	1	225.0	110.00000000000001															
	854	1.25	0.0	0.0	0.0	1.035	3.0	1	2.5	0.0															
	860	6.0	0.0	0.0	0.0	1.035	12.4	1	12.0	0.0															
	870	118.0	15.0	30.0	0.0	1.035	167.6	1	170.0	66.0															
	870	47.5	15.0	30.0	0.0	1.035	71.6	1	61.0	34.0															
	876	10.5	0.0	0.0	0.0	1.035	8.3	1	21.0	0.0															
	890	3.5000000000000004	0.0	0.0	0.0	1.035	5.6	1	7.000000000000001	0.0															
	893	0.0	0.0	0.0	0.0	1.035	3.0	0	10.0	0.0															
	908	15.2	0.0	0.0	0.0	1.035	3.0	1	30.4	0.0															
	913	1.0	0.0	0.0	0.0	1.035	0.0	1	2.0	0.0															
	918	0.0	0.0	0.0	0.0	1.035	1.0	0	1.9	0.0															
	929	0.0	0.0	0.0	0.0	1.035	2.1	0	2.02	1.34															
	934	177.0	47.0	105.0	-11.0	1.035	235.0	1	225.0	129.0															
	936	18.0	15.0	30.0	0.0	1.035	36.8	1	36.0	0.0															
	939	0.0	0.0	0.0	0.0	1.035	2.8	0	2.68	1.78															
	959	75.0	15.0	30.0	0.0	1.035	100.8	1	101.0	49.0															
	965	0.0	0.0	0.0	0.0	1.035	1.7	0	12.0	0.0															
	980	6.0	15.0	30.0	0.0	1.035	9.5	1	12.0	0.0															
	982	0.0	0.0	0.0	0.0	1.035	1.6	0	1.6	0.91															
	984	3.5000000000000004	0.0	0.0	0.0	1.035	5.9	1	6.0	1.0															
	989	4.15	0.0	0.0	0.0	1.035	10.9	1	8.3	0.0															
	993	36.5	11.5	23.0	0.0	1.035	52.0	1	68.0	5.0															
	993	0.0	0.0	23.0	0.0	1.035	52.0	0	68.0	5.0															
	993	0.0	0.0	11.0	0.0	1.035	24.5	0	31.0	-32.0															
	993	0.0	0.0	10.0	0.0	1.035	24.5	0	31.0	-32.0															
	1008	0.0	0.0	10.0	0.0	1.035	69.0	0	50.0	0.0															
	1008	108.5	29.5	74.0	-15.0	1.035	57.6	1	125.0	92.0															
	1009	104.5	29.5	74.0	-15.0	1.035	57.6	1	125.0	84.0															
	1009	0.0	0.0	10.0	0.0	1.035	40.0	0	30.0	0.0															
	1021	1.25	0.0	0.0	0.0	1.035	3.3	1	2.5	0.0															
	1049	2.79	0.0	0.0	0.0	1.035	3.8	1	3.35	2.23															
...
];

%% branch data
%    f_bus    t_bus    r    x    b    rateA    rateB    rateC    ratio    angle    status    angmin    angmax
mpc.branch = [
	9	11	0.00064	0.0305	0.0	400.0	400.0	400.0	1.10224	0.0	1	-29.999999999999996	29.999999999999996								
	13	12	0.00069	0.03946	0.0	250.0	250.0	250.0	0.9999	0.0	1	-29.999999999999996	29.999999999999996								
	21	19	0.00088	0.05709	0.0	330.0	330.0	330.0	0.9999	0.0	1	-29.999999999999996	29.999999999999996								
	36	35	0.0007	0.03652	0.0	250.0	250.0	250.0	0.9999	0.0	1	-29.999999999999996	29.999999999999996								
	37	40	0.00036	0.02519	0.0	500.0	500.0	500.0	1.0686	0.0	1	-29.999999999999996	29.999999999999996								
	38	41	0.00036	0.02519	0.0	500.0	500.0	500.0	1.08671	0.0	1	-29.999999999999996	29.999999999999996								
	55	56	0.00034	0.02097	0.0	500.0	500.0	500.0	1.0755	0.0	1	-29.999999999999996	29.999999999999996								
	59	61	0.00034	0.02097	0.0	500.0	500.0	500.0	1.05955	0.0	1	-29.999999999999996	29.999999999999996								
	70	72	0.00081	0.03	0.0	400.0	400.0	400.0	1.0876	0.0	1	-29.999999999999996	29.999999999999996								
	107	109	0.00075	0.02445	-0.00832	330.0	330.0	330.0	1.06467	0.0	1	-29.999999999999996	29.999999999999996								
	108	110	0.0004	0.0253	0.0	500.0	500.0	500.0	1.07013	0.0	1	-29.999999999999996	29.999999999999996								
	144	147	0.00053	0.02875	-0.016	400.0	400.0	400.0	1.07702	0.0	1	-29.999999999999996	29.999999999999996								
	173	174	0.00064	0.0305	0.0	400.0	400.0	400.0	1.06172	0.0	1	-29.999999999999996	29.999999999999996								
	182	183	0.00023	0.023	0.0	500.0	500.0	500.0	1.07426	0.0	1	-29.999999999999996	29.999999999999996								
	181	184	0.00023	0.023	0.0	500.0	500.0	500.0	1.07426	0.0	1	-29.999999999999996	29.999999999999996								
	188	187	0.00032	0.04392	0.0	330.0	330.0	330.0	0.9999	0.0	1	-29.999999999999996	29.999999999999996								
	191	193	0.0003	0.02732	0.0	500.0	500.0	500.0	1.10871	0.0	1	-29.999999999999996	29.999999999999996								
	198	200	0.00035	0.02375	0.0	500.0	500.0	500.0	1.07313	0.0	1	-29.999999999999996	29.999999999999996								
	212	213	0.00051	0.0275	0.0	400.0	400.0	400.0	1.10394	0.0	1	-29.999999999999996	29.999999999999996								
	217	215	0.00084	0.06858	0.0	250.0	250.0	250.0	0.9999	0.0	1	-29.999999999999996	29.999999999999996								
	220	222	0.00033	0.02711	0.0	500.0	500.0	500.0	1.08613	0.0	1	-29.999999999999996	29.999999999999996								
	224	222	0.00032	0.0464	0.0	330.0	330.0	330.0	0.9999	0.0	1	-29.999999999999996	29.999999999999996								
	231	229	0.00113	0.05647	0.0	330.0	330.0	330.0	0.9999	0.0	1	-29.999999999999996	29.999999999999996								
	228	230	0.00075	0.02469	-0.008	330.0	330.0	330.0	1.04544	0.0	1	-29.999999999999996	29.999999999999996								
	3010	183	0.00029	0.00317	0.09184	773.0	773.0	773.0	0	0	1	-29.999999999999996	29.999999999999996								
	3010	184	0.0003	0.00326	0.09536	771.0	771.0	771.0	0	0	1	-29.999999999999996	29.999999999999996								
	244	84	0.01475	0.08595	0.13036	315.0	315.0	315.0	0	0	1	-29.999999999999996	29.999999999999996								
	3007	92	0.01244	0.06959	0.1181	309.0	309.0	309.0	0	0	1	-29.999999999999996	29.999999999999996								
	3007	122	0.01207	0.06905	0.11519	312.0	312.0	312.0	0	0	1	-29.999999999999996	29.999999999999996								
	146	3008	0.00168	0.01604	0.51488	724.0	724.0	724.0	0	0	1	-29.999999999999996	29.999999999999996								
	3011	172	0.0018	0.01616	0.0484	387.0	387.0	387.0	0	0	1	-29.999999999999996	29.999999999999996								
	3011	173	0.0018	0.01616	0.0484	387.0	387.0	387.0	0	0	1	-29.999999999999996	29.999999999999996								
	3012	63	0.00223	0.02209	0.69011	737.0	737.0	737.0	0	0	1	-29.999999999999996	29.999999999999996								
	3012	64	0.00223	0.02209	0.69011	737.0	737.0	737.0	0	0	1	-29.999999999999996	29.999999999999996								
	99	3006	0.00293	0.03054	0.95472	755.0	755.0	755.0	0	0	1	-29.999999999999996	29.999999999999996								
	58	30	0.01174	0.07014	0.12689	319.0	319.0	319.0	0	0	1	-29.999999999999996	29.999999999999996								
	37	107	0.00919	0.06614	0.10451	348.0	348.0	348.0	0	0	1	-29.999999999999996	29.999999999999996								
	38	108	0.00822	0.05767	0.0982	344.0	344.0	344.0	0	0	1	-29.999999999999996	29.999999999999996								
	169	42	0.01698	0.12459	0.1957	256.0	256.0	256.0	0	0	1	-29.999999999999996	29.999999999999996								
	155	48	0.01298	0.06738	0.10284	298.0	298.0	298.0	0	0	1	-29.999999999999996	29.999999999999996								
	154	27	0.01068	0.0475	0.09495	277.0	277.0	277.0	0	0	1	-29.999999999999996	29.999999999999996								
	191	28	0.01436	0.10729	0.16081	298.0	298.0	298.0	0	0	1	-29.999999999999996	29.999999999999996								
	55	126	0.01488	0.08161	0.1148	306.0	306.0	306.0	0	0	1	-29.999999999999996	29.999999999999996								
	54	108	0.01116	0.07171	0.10367	330.0	330.0	330.0	0	0	1	-29.999999999999996	29.999999999999996								
	207	100	0.00552	0.05948	0.17077	422.0	422.0	422.0	0	0	1	-29.999999999999996	29.999999999999996								
	238	192	0.01118	0.06597	0.10778	317.0	317.0	317.0	0	0	1	-29.999999999999996	29.999999999999996								
	226	191	0.01682	0.08909	0.12993	301.0	301.0	301.0	0	0	1	-29.999999999999996	29.999999999999996								
	225	192	0.01384	0.08702	0.13484	327.0	327.0	327.0	0	0	1	-29.999999999999996	29.999999999999996								
	242	195	0.01517	0.09938	0.14492	274.0	274.0	274.0	0	0	1	-29.999999999999996	29.999999999999996								
	59	16	0.01347	0.07316	0.13418	305.0	305.0	305.0	0	0	1	-29.999999999999996	29.999999999999996								
	233	25	0.01403	0.10413	0.15949	307.0	307.0	307.0	0	0	1	-29.999999999999996	29.999999999999996								
	117	70	0.00374	0.0438	0.10096	438.99999999999994	438.99999999999994	438.99999999999994	0	0	1	-29.999999999999996	29.999999999999996								
	190	99	0.00194	0.02007	0.54307	753.0	753.0	753.0	0	0	1	-29.999999999999996	29.999999999999996								
	60	12	0.0015	0.01506	0.4032	742.0	742.0	742.0	0	0	1	-29.999999999999996	29.999999999999996								
	214	174	0.00296	0.03484	0.9296	800.0	800.0	800.0	0	0	1	-29.999999999999996	29.999999999999996								
	138	72	0.00169	0.01931	0.53814	789.0	789.0	789.0	0	0	1	-29.999999999999996	29.999999999999996								
	41	110	0.00137	0.01569	0.43744	790.0	790.0	790.0	0	0	1	-29.999999999999996	29.999999999999996								
	40	141	0.00234	0.02677	0.74653	790.0	790.0	790.0	0	0	1	-29.999999999999996	29.999999999999996								
	34	222	0.00217	0.02513	0.67098	794.0	794.0	794.0	0	0	1	-29.999999999999996	29.999999999999996								
	138	80	0.00152	0.01739	0.48083	790.0	790.0	790.0	0	0	1	-29.999999999999996	29.999999999999996								
	140	80	0.00468	0.05347	1.48883	537.0	537.0	537.0	0	0	1	-29.999999999999996	29.999999999999996								
	99	44	0.00355	0.03617	0.95894	747.0	747.0	747.0	0	0	1	-29.999999999999996	29.999999999999996								
	109	40	0.00195	0.02103	0.5679	768.0	768.0	768.0	0	0	1	-29.999999999999996	29.999999999999996								
	63	139	0.00144	0.01446	0.51213	742.0	742.0	742.0	0	0	1	-29.999999999999996	29.999999999999996								
	14	6	0.013	0.09781	0.14013	326.0	326.0	326.0	0	0	1	-29.999999999999996	29.999999999999996								
	43	14	0.00525	0.03847	0.06053	351.0	351.0	351.0	0	0	1	-29.999999999999996	29.999999999999996								
	33	6	0.00457	0.03351	0.05245	352.0	352.0	352.0	0	0	1	-29.999999999999996	29.999999999999996								
	24	9	0.01469	0.10915	0.16676	293.0	293.0	293.0	0	0	1	-29.999999999999996	29.999999999999996								
	29	16	0.01262	0.09326	0.14324	342.0	342.0	342.0	0	0	1	-29.999999999999996	29.999999999999996								
	37	7	0.00924	0.05052	0.07698	306.0	306.0	306.0	0	0	1	-29.999999999999996	29.999999999999996								
	24	3	0.01068	0.07936	0.12155	274.0	274.0	274.0	0	0	1	-29.999999999999996	29.999999999999996								
	37	27	0.00585	0.04027	0.07161	341.0	341.0	341.0	0	0	1	-29.999999999999996	29.999999999999996								
	39	26	0.00585	0.04027	0.07161	341.0	341.0	341.0	0	0	1	-29.999999999999996	29.999999999999996								
	15	8	0.00558	0.04147	0.0629	354.0	354.0	354.0	0	0	1	-29.999999999999996	29.999999999999996								
	46	14	0.00089	0.0063	0.0108	346.0	346.0	346.0	0	0	1	-29.999999999999996	29.999999999999996								
	31	15	0.00442	0.02374	0.04477	303.0	303.0	303.0	0	0	1	-29.999999999999996	29.999999999999996								
	47	7	0.00494	0.0269	0.04225	305.0	305.0	305.0	0	0	1	-29.999999999999996	29.999999999999996								
	26	6	0.00287	0.01671	0.02467	315.0	315.0	315.0	0	0	1	-29.999999999999996	29.999999999999996								
	37	1	0.0012	0.0089	0.01512	353.0	353.0	353.0	0	0	1	-29.999999999999996	29.999999999999996								
	39	2	0.0012	0.0089	0.01513	353.0	353.0	353.0	0	0	1	-29.999999999999996	29.999999999999996								
	38	32	0.00399	0.02901	0.04808	350.0	350.0	350.0	0	0	1	-29.999999999999996	29.999999999999996								
	34	12	0.00298	0.03445	0.94221	794.0	794.0	794.0	0	0	1	-29.999999999999996	29.999999999999996								
	40	34	0.00358	0.04122	1.13382	696.0	696.0	696.0	0	0	1	-29.999999999999996	29.999999999999996								
	20	41	0.00342	0.03928	1.08288	730.0	730.0	730.0	0	0	1	-29.999999999999996	29.999999999999996								
	11	22	0.00286	0.0335	0.89392	799.0	799.0	799.0	0	0	1	-29.999999999999996	29.999999999999996								
	11	20	0.0011	0.01259	0.3496	790.0	790.0	790.0	0	0	1	-29.999999999999996	29.999999999999996								
	44	41	0.00076	0.00868	0.24096	789.0	789.0	789.0	0	0	1	-29.999999999999996	29.999999999999996								
	79	74	0.01054	0.06151	0.09306	315.0	315.0	315.0	0	0	1	-29.999999999999996	29.999999999999996								
	76	71	0.00905	0.06723	0.10296	354.0	354.0	354.0	0	0	1	-29.999999999999996	29.999999999999996								
	83	49	0.0114	0.06587	0.09975	274.0	274.0	274.0	0	0	1	-29.999999999999996	29.999999999999996								
	66	49	0.0107	0.06628	0.10825	324.0	324.0	324.0	0	0	1	-29.999999999999996	29.999999999999996								
	74	57	0.00543	0.03733	0.06668	341.0	341.0	341.0	0	0	1	-29.999999999999996	29.999999999999996								
	75	59	0.00543	0.03733	0.06668	341.0	341.0	341.0	0	0	1	-29.999999999999996	29.999999999999996								
	75	49	0.00657	0.0481	0.0727	351.0	351.0	351.0	0	0	1	-29.999999999999996	29.999999999999996								
	84	67	0.00302	0.0201	0.03069	336.0	336.0	336.0	0	0	1	-29.999999999999996	29.999999999999996								
	67	53	0.007	0.05138	0.08084	352.0	352.0	352.0	0	0	1	-29.999999999999996	29.999999999999996								
	51	70	0.00329	0.02506	0.0439	358.0	358.0	358.0	0	0	1	-29.999999999999996	29.999999999999996								
	52	50	0.00789	0.05868	0.08985	354.0	354.0	354.0	0	0	1	-29.999999999999996	29.999999999999996								
	71	52	0.00558	0.04062	0.06491	350.0	350.0	350.0	0	0	1	-29.999999999999996	29.999999999999996								
	83	51	0.00452	0.03366	0.05156	354.0	354.0	354.0	0	0	1	-29.999999999999996	29.999999999999996								
	83	82	0.00134	0.00996	0.01337	354.0	354.0	354.0	0	0	1	-29.999999999999996	29.999999999999996								
	78	57	0.00618	0.04353	0.07649	345.0	345.0	345.0	0	0	1	-29.999999999999996	29.999999999999996								
	79	58	0.00618	0.04353	0.07649	345.0	345.0	345.0	0	0	1	-29.999999999999996	29.999999999999996								
	78	54	0.01219	0.0637	0.09333	299.0	299.0	299.0	0	0	1	-29.999999999999996	29.999999999999996								
	77	55	0.00246	0.01826	0.02798	354.0	354.0	354.0	0	0	1	-29.999999999999996	29.999999999999996								
	62	54	0.00242	0.01531	0.02249	328.0	328.0	328.0	0	0	1	-29.999999999999996	29.999999999999996								
	65	61	0.0017	0.01977	0.53386	796.0	796.0	796.0	0	0	1	-29.999999999999996	29.999999999999996								
	73	69	0.00116	0.013	0.33856	782.0	782.0	782.0	0	0	1	-29.999999999999996	29.999999999999996								
	56	72	0.00218	0.02536	0.68579	796.0	796.0	796.0	0	0	1	-29.999999999999996	29.999999999999996								
	80	73	0.00105	0.01123	0.28195	765.0	765.0	765.0	0	0	1	-29.999999999999996	29.999999999999996								
	64	81	0.00119	0.01428	0.36666	808.0	808.0	808.0	0	0	1	-29.999999999999996	29.999999999999996								
	68	60	0.00184	0.02139	0.5777	796.0	796.0	796.0	0	0	1	-29.999999999999996	29.999999999999996								
	113	144	0.00488	0.03362	0.05961	341.0	341.0	341.0	0	0	1	-29.999999999999996	29.999999999999996								
	91	124	0.01093	0.05919	0.08439	290.0	290.0	290.0	0	0	1	-29.999999999999996	29.999999999999996								
	124	111	0.00194	0.01415	0.0223	351.0	351.0	351.0	0	0	1	-29.999999999999996	29.999999999999996								
	95	150	0.00192	0.01355	0.023	345.0	345.0	345.0	0	0	1	-29.999999999999996	29.999999999999996								
	150	102	0.00238	0.01667	0.02846	344.0	344.0	344.0	0	0	1	-29.999999999999996	29.999999999999996								
	123	150	0.00279	0.02017	0.03204	349.0	349.0	349.0	0	0	1	-29.999999999999996	29.999999999999996								
	151	149	0.00066	0.00496	0.00758	356.0	356.0	356.0	0	0	1	-29.999999999999996	29.999999999999996								
	123	151	0.00537	0.04039	0.06005	356.0	356.0	356.0	0	0	1	-29.999999999999996	29.999999999999996								
	108	151	0.00083	0.00525	0.00868	305.0	305.0	305.0	0	0	1	-29.999999999999996	29.999999999999996								
	117	137	0.01589	0.0876	0.11682	307.0	307.0	307.0	0	0	1	-29.999999999999996	29.999999999999996								
	97	130	0.00217	0.01459	0.02575	316.0	316.0	316.0	0	0	1	-29.999999999999996	29.999999999999996								
	134	118	0.01773	0.11678	0.16361	273.0	273.0	273.0	0	0	1	-29.999999999999996	29.999999999999996								
	145	90	0.00593	0.04093	0.07215	342.0	342.0	342.0	0	0	1	-29.999999999999996	29.999999999999996								
	125	107	0.0039	0.02847	0.04498	351.0	351.0	351.0	0	0	1	-29.999999999999996	29.999999999999996								
	136	95	0.00816	0.04242	0.0612	298.0	298.0	298.0	0	0	1	-29.999999999999996	29.999999999999996								
	137	94	0.00816	0.04242	0.0612	298.0	298.0	298.0	0	0	1	-29.999999999999996	29.999999999999996								
	95	92	0.00519	0.03839	0.05875	353.0	353.0	353.0	0	0	1	-29.999999999999996	29.999999999999996								
	94	89	0.00213	0.01403	0.0226	334.0	334.0	334.0	0	0	1	-29.999999999999996	29.999999999999996								
	131	94	0.00463	0.02775	0.04612	319.0	319.0	319.0	0	0	1	-29.999999999999996	29.999999999999996								
	120	88	0.01122	0.07074	0.11571	290.0	290.0	290.0	0	0	1	-29.999999999999996	29.999999999999996								
	127	135	0.00601	0.04147	0.07364	342.0	342.0	342.0	0	0	1	-29.999999999999996	29.999999999999996								
	108	85	0.00207	0.01279	0.02055	316.0	316.0	316.0	0	0	1	-29.999999999999996	29.999999999999996								
	103	107	0.00136	0.0099	0.01586	350.0	350.0	350.0	0	0	1	-29.999999999999996	29.999999999999996								
	148	104	0.00058	0.00417	0.00684	348.0	348.0	348.0	0	0	1	-29.999999999999996	29.999999999999996								
	152	92	0.00085	0.00624	0.00954	352.0	352.0	352.0	0	0	1	-29.999999999999996	29.999999999999996								
	153	93	0.00085	0.00626	0.00948	352.0	352.0	352.0	0	0	1	-29.999999999999996	29.999999999999996								
	119	93	0.00159	0.01112	0.01913	344.0	344.0	344.0	0	0	1	-29.999999999999996	29.999999999999996								
	144	121	0.00314	0.02159	0.03839	341.0	341.0	341.0	0	0	1	-29.999999999999996	29.999999999999996								
	145	128	0.00455	0.03157	0.05531	342.0	342.0	342.0	0	0	1	-29.999999999999996	29.999999999999996								
	121	101	0.00145	0.01008	0.01719	343.0	343.0	343.0	0	0	1	-29.999999999999996	29.999999999999996								
	122	112	0.00384	0.02721	0.04517	346.0	346.0	346.0	0	0	1	-29.999999999999996	29.999999999999996								
	129	96	0.00777	0.04128	0.06391	302.0	302.0	302.0	0	0	1	-29.999999999999996	29.999999999999996								
	106	94	0.00446	0.03041	0.04867	290.0	290.0	290.0	0	0	1	-29.999999999999996	29.999999999999996								
	135	125	0.00589	0.03506	0.05235	318.0	318.0	318.0	0	0	1	-29.999999999999996	29.999999999999996								
	126	116	0.00316	0.02378	0.03527	356.0	356.0	356.0	0	0	1	-29.999999999999996	29.999999999999996								
	134	95	0.00184	0.0126	0.0224	340.0	340.0	340.0	0	0	1	-29.999999999999996	29.999999999999996								
	123	105	0.00171	0.00961	0.01424	310.0	310.0	310.0	0	0	1	-29.999999999999996	29.999999999999996								
	115	95	0.00341	0.02442	0.03997	348.0	348.0	348.0	0	0	1	-29.999999999999996	29.999999999999996								
	135	94	0.00184	0.0126	0.02239	340.0	340.0	340.0	0	0	1	-29.999999999999996	29.999999999999996								
	100	114	0.0057	0.04149	0.06617	350.0	350.0	350.0	0	0	1	-29.999999999999996	29.999999999999996								
	143	136	0.00459	0.02463	0.03616	303.0	303.0	303.0	0	0	1	-29.999999999999996	29.999999999999996								
	142	127	0.00215	0.01333	0.02211	325.0	325.0	325.0	0	0	1	-29.999999999999996	29.999999999999996								
	117	87	0.00079	0.00488	0.00726	137.0	137.0	137.0	0	0	1	-29.999999999999996	29.999999999999996								
	118	86	0.00079	0.00488	0.00724	137.0	137.0	137.0	0	0	1	-29.999999999999996	29.999999999999996								
	110	146	0.00241	0.02782	0.77066	793.0	793.0	793.0	0	0	1	-29.999999999999996	29.999999999999996								
	99	147	0.00213	0.02432	0.67744	789.0	789.0	789.0	0	0	1	-29.999999999999996	29.999999999999996								
	140	132	0.00091	0.0104	0.28989	789.0	789.0	789.0	0	0	1	-29.999999999999996	29.999999999999996								
	141	139	0.00312	0.03563	0.99107	789.0	789.0	789.0	0	0	1	-29.999999999999996	29.999999999999996								
	132	147	0.00092	0.01051	0.29293	789.0	789.0	789.0	0	0	1	-29.999999999999996	29.999999999999996								
	202	181	0.01039	0.08983	0.11422	356.0	356.0	356.0	0	0	1	-29.999999999999996	29.999999999999996								
	203	180	0.01039	0.08983	0.11422	356.0	356.0	356.0	0	0	1	-29.999999999999996	29.999999999999996								
	205	180	0.01455	0.0813	0.13279	309.0	309.0	309.0	0	0	1	-29.999999999999996	29.999999999999996								
	206	181	0.01455	0.0813	0.13279	309.0	309.0	309.0	0	0	1	-29.999999999999996	29.999999999999996								
	158	206	0.00519	0.03965	0.05836	358.0	358.0	358.0	0	0	1	-29.999999999999996	29.999999999999996								
	158	168	0.00083	0.00645	0.00951	361.0	361.0	361.0	0	0	1	-29.999999999999996	29.999999999999996								
	192	163	0.01105	0.08107	0.12824	352.0	352.0	352.0	0	0	1	-29.999999999999996	29.999999999999996								
	159	182	0.00597	0.04473	0.06735	355.0	355.0	355.0	0	0	1	-29.999999999999996	29.999999999999996								
	199	202	0.01736	0.10969	0.16268	290.0	290.0	290.0	0	0	1	-29.999999999999996	29.999999999999996								
	176	203	0.00938	0.06093	0.08934	332.0	332.0	332.0	0	0	1	-29.999999999999996	29.999999999999996								
	179	181	0.01246	0.09134	0.14349	349.0	349.0	349.0	0	0	1	-29.999999999999996	29.999999999999996								
	156	160	0.00514	0.03826	0.05933	305.0	305.0	305.0	0	0	1	-29.999999999999996	29.999999999999996								
	172	166	0.01062	0.0789	0.12085	354.0	354.0	354.0	0	0	1	-29.999999999999996	29.999999999999996								
	178	209	0.00769	0.0569	0.08673	353.0	353.0	353.0	0	0	1	-29.999999999999996	29.999999999999996								
	178	208	0.00225	0.01667	0.02541	286.0	286.0	286.0	0	0	1	-29.999999999999996	29.999999999999996								
	199	170	0.01851	0.1088	0.14435	292.0	292.0	292.0	0	0	1	-29.999999999999996	29.999999999999996								
	204	198	0.00236	0.01411	0.02031	229.0	229.0	229.0	0	0	1	-29.999999999999996	29.999999999999996								
	198	163	0.00355	0.02607	0.04096	352.0	352.0	352.0	0	0	1	-29.999999999999996	29.999999999999996								
	199	194	0.013	0.07589	0.11484	315.0	315.0	315.0	0	0	1	-29.999999999999996	29.999999999999996								
	198	177	0.00934	0.0539	0.08683	314.0	314.0	314.0	0	0	1	-29.999999999999996	29.999999999999996								
	170	154	0.00698	0.0374	0.05463	303.0	303.0	303.0	0	0	1	-29.999999999999996	29.999999999999996								
	169	155	0.00436	0.03202	0.0503	352.0	352.0	352.0	0	0	1	-29.999999999999996	29.999999999999996								
	191	170	0.0006	0.00351	0.00555	316.0	316.0	316.0	0	0	1	-29.999999999999996	29.999999999999996								
	192	169	0.0006	0.00351	0.00555	316.0	316.0	316.0	0	0	1	-29.999999999999996	29.999999999999996								
	179	166	0.01058	0.07762	0.12203	352.0	352.0	352.0	0	0	1	-29.999999999999996	29.999999999999996								
	185	172	0.00469	0.03486	0.05338	354.0	354.0	354.0	0	0	1	-29.999999999999996	29.999999999999996								
	173	164	0.00568	0.04012	0.07033	345.0	345.0	345.0	0	0	1	-29.999999999999996	29.999999999999996								
	196	164	0.00105	0.00733	0.01258	343.0	343.0	343.0	0	0	1	-29.999999999999996	29.999999999999996								
	197	185	0.00744	0.05397	0.09307	350.0	350.0	350.0	0	0	1	-29.999999999999996	29.999999999999996								
	206	157	0.00221	0.01618	0.02541	351.0	351.0	351.0	0	0	1	-29.999999999999996	29.999999999999996								
	207	205	0.00525	0.03837	0.06052	351.0	351.0	351.0	0	0	1	-29.999999999999996	29.999999999999996								
	210	202	0.00236	0.01746	0.02676	353.0	353.0	353.0	0	0	1	-29.999999999999996	29.999999999999996								
	183	161	0.00274	0.02778	0.69846	746.0	746.0	746.0	0	0	1	-29.999999999999996	29.999999999999996								
	189	162	0.00171	0.01741	0.45456	747.0	747.0	747.0	0	0	1	-29.999999999999996	29.999999999999996								
	187	190	0.00136	0.01599	0.41965	800.0	800.0	800.0	0	0	1	-29.999999999999996	29.999999999999996								
	200	175	0.00373	0.04344	1.172	661.0	661.0	661.0	0	0	1	-29.999999999999996	29.999999999999996								
	218	225	0.02738	0.14254	0.20047	222.00000000000003	222.00000000000003	222.00000000000003	0	0	1	-29.999999999999996	29.999999999999996								
	232	238	0.02709	0.15992	0.26125	199.0	199.0	199.0	0	0	1	-29.999999999999996	29.999999999999996								
	219	243	0.01909	0.11277	0.16673	274.0	274.0	274.0	0	0	1	-29.999999999999996	29.999999999999996								
...
];

%%-----  OPF Data  -----%%
%% cost data
%    1    startup    shutdown    n    x1    y1    ...    xn    yn
%    2    startup    shutdown    n    c(n-1)    ...    c0
mpc.gencost = [
	2	0.0	0.0	2	158.61	0.0
	2	0.0	0.0	2	158.61	0.0
	2	0.0	0.0	2	107.03	0.0
	2	0.0	0.0	2	107.03	0.0
	2	0.0	0.0	2	107.03	0.0
	2	0.0	0.0	2	107.03	0.0
	2	0.0	0.0	2	107.03	0.0
	2	0.0	0.0	2	107.03	0.0
	2	0.0	0.0	2	107.03	0.0
	2	0.0	0.0	2	107.03	0.0
	2	0.0	0.0	2	107.03	0.0
	2	0.0	0.0	2	107.03	0.0
	2	0.0	0.0	2	107.03	0.0
	2	0.0	0.0	2	143.52	0.0
	2	0.0	0.0	2	143.52	0.0
	2	0.0	0.0	2	143.52	0.0
	2	0.0	0.0	2	143.52	0.0
	2	0.0	0.0	2	143.52	0.0
	2	0.0	0.0	2	143.52	0.0
	2	0.0	0.0	2	143.52	0.0
	2	0.0	0.0	2	143.52	0.0
	2	0.0	0.0	2	148.16	0.0
	2	0.0	0.0	2	148.16	0.0
	2	0.0	0.0	2	148.16	0.0
	2	0.0	0.0	2	148.16	0.0
	2	0.0	0.0	2	148.16	0.0
	2	0.0	0.0	2	148.16	0.0
	2	0.0	0.0	2	148.16	0.0
	2	0.0	0.0	2	0.0	0.0
	2	0.0	0.0	2	134.04	0.0
	2	0.0	0.0	2	134.04	0.0
	2	0.0	0.0	2	134.04	0.0
	2	0.0	0.0	2	134.04	0.0
	2	0.0	0.0	2	134.04	0.0
	2	0.0	0.0	2	126.62	0.0
	2	0.0	0.0	2	126.62	0.0
	2	0.0	0.0	2	0.0	0.0
	2	0.0	0.0	2	0.0	0.0
	2	0.0	0.0	2	130.49	0.0
	2	0.0	0.0	2	130.49	0.0
	2	0.0	0.0	2	132.33	0.0
	2	0.0	0.0	2	132.33	0.0
	2	0.0	0.0	2	136.59	0.0
	2	0.0	0.0	2	136.59	0.0
	2	0.0	0.0	2	139.96	0.0
	2	0.0	0.0	2	128.21	0.0
	2	0.0	0.0	2	128.21	0.0
	2	0.0	0.0	2	128.21	0.0
	2	0.0	0.0	2	128.21	0.0
	2	0.0	0.0	2	128.21	0.0
	2	0.0	0.0	2	137.4	0.0
	2	0.0	0.0	2	137.4	0.0
	2	0.0	0.0	2	137.4	0.0
	2	0.0	0.0	2	137.4	0.0
	2	0.0	0.0	2	129.99	0.0
	2	0.0	0.0	2	129.99	0.0
	2	0.0	0.0	2	129.99	0.0
	2	0.0	0.0	2	135.6	0.0
	2	0.0	0.0	2	135.6	0.0
	2	0.0	0.0	2	135.6	0.0
	2	0.0	0.0	2	163.16	0.0
	2	0.0	0.0	2	163.16	0.0
	2	0.0	0.0	2	163.16	0.0
	2	0.0	0.0	2	163.16	0.0
	2	0.0	0.0	2	163.16	0.0
	2	0.0	0.0	2	163.16	0.0
	2	0.0	0.0	2	163.16	0.0
	2	0.0	0.0	2	139.01	0.0
	2	0.0	0.0	2	139.01	0.0
	2	0.0	0.0	2	139.01	0.0
	2	0.0	0.0	2	139.01	0.0
	2	0.0	0.0	2	139.01	0.0
	2	0.0	0.0	2	139.01	0.0
	2	0.0	0.0	2	139.01	0.0
	2	0.0	0.0	2	139.01	0.0
	2	0.0	0.0	2	125.48	0.0
	2	0.0	0.0	2	125.48	0.0
	2	0.0	0.0	2	125.48	0.0
	2	0.0	0.0	2	125.48	0.0
	2	0.0	0.0	2	125.48	0.0
	2	0.0	0.0	2	137.4	0.0
	2	0.0	0.0	2	137.4	0.0
	2	0.0	0.0	2	137.4	0.0
	2	0.0	0.0	2	137.4	0.0
	2	0.0	0.0	2	137.4	0.0
	2	0.0	0.0	2	0.0	0.0
	2	0.0	0.0	2	0.0	0.0
	2	0.0	0.0	2	0.0	0.0
	2	0.0	0.0	2	0.0	0.0
	2	0.0	0.0	2	0.0	0.0
	2	0.0	0.0	2	0.0	0.0
	2	0.0	0.0	2	0.0	0.0
	2	0.0	0.0	2	0.0	0.0
	2	0.0	0.0	2	0.0	0.0
	2	0.0	0.0	2	0.0	0.0
	2	0.0	0.0	2	0.0	0.0
	2	0.0	0.0	2	0.0	0.0
	2	0.0	0.0	2	0.0	0.0
	2	0.0	0.0	2	107.03	0.0
	2	0.0	0.0	2	0.0	0.0
	2	0.0	0.0	2	0.0	0.0
	2	0.0	0.0	2	0.0	0.0
	2	0.0	0.0	2	0.0	0.0
	2	0.0	0.0	2	0.0	0.0
	2	0.0	0.0	2	0.0	0.0
	2	0.0	0.0	2	0.0	0.0
	2	0.0	0.0	2	0.0	0.0
	2	0.0	0.0	2	0.0	0.0
	2	0.0	0.0	2	0.0	0.0
	2	0.0	0.0	2	0.0	0.0
	2	0.0	0.0	2	0.0	0.0
	2	0.0	0.0	2	0.0	0.0
	2	0.0	0.0	2	0.0	0.0
	2	0.0	0.0	2	0.0	0.0
	2	0.0	0.0	2	0.0	0.0
	2	0.0	0.0	2	0.0	0.0
	2	0.0	0.0	2	0.0	0.0
	2	0.0	0.0	2	0.0	0.0
	2	0.0	0.0	2	0.0	0.0
	2	0.0	0.0	2	0.0	0.0
	2	0.0	0.0	2	0.0	0.0
	2	0.0	0.0	2	0.0	0.0
	2	0.0	0.0	2	0.0	0.0
	2	0.0	0.0	2	158.61	0.0
	2	0.0	0.0	2	158.61	0.0
	2	0.0	0.0	2	158.61	0.0
	2	0.0	0.0	2	0.0	0.0
	2	0.0	0.0	2	0.0	0.0
	2	0.0	0.0	2	0.0	0.0
	2	0.0	0.0	2	0.0	0.0
	2	0.0	0.0	2	0.0	0.0
	2	0.0	0.0	2	0.0	0.0
	2	0.0	0.0	2	0.0	0.0
	2	0.0	0.0	2	0.0	0.0
	2	0.0	0.0	2	0.0	0.0
	2	0.0	0.0	2	0.0	0.0
	2	0.0	0.0	2	0.0	0.0
	2	0.0	0.0	2	0.0	0.0
	2	0.0	0.0	2	0.0	0.0
	2	0.0	0.0	2	0.0	0.0
	2	0.0	0.0	2	0.0	0.0
	2	0.0	0.0	2	0.0	0.0
	2	0.0	0.0	2	0.0	0.0
	2	0.0	0.0	2	0.0	0.0
	2	0.0	0.0	2	0.0	0.0
	2	0.0	0.0	2	0.0	0.0
	2	0.0	0.0	2	0.0	0.0
	2	0.0	0.0	2	0.0	0.0
	2	0.0	0.0	2	0.0	0.0
	2	0.0	0.0	2	0.0	0.0
	2	0.0	0.0	2	0.0	0.0
	2	0.0	0.0	2	0.0	0.0
	2	0.0	0.0	2	0.0	0.0
	2	0.0	0.0	2	0.0	0.0
	2	0.0	0.0	2	0.0	0.0
	2	0.0	0.0	2	0.0	0.0
	2	0.0	0.0	2	0.0	0.0
	2	0.0	0.0	2	0.0	0.0
	2	0.0	0.0	2	0.0	0.0
	2	0.0	0.0	2	0.0	0.0
	2	0.0	0.0	2	0.0	0.0
	2	0.0	0.0	2	0.0	0.0
	2	0.0	0.0	2	0.0	0.0
	2	0.0	0.0	2	0.0	0.0
	2	0.0	0.0	2	0.0	0.0
	2	0.0	0.0	2	0.0	0.0
	2	0.0	0.0	2	0.0	0.0
	2	0.0	0.0	2	0.0	0.0
	2	0.0	0.0	2	143.52	0.0
	2	0.0	0.0	2	143.52	0.0
	2	0.0	0.0	2	0.0	0.0
	2	0.0	0.0	2	0.0	0.0
	2	0.0	0.0	2	0.0	0.0
	2	0.0	0.0	2	0.0	0.0
	2	0.0	0.0	2	0.0	0.0
	2	0.0	0.0	2	0.0	0.0
	2	0.0	0.0	2	0.0	0.0
	2	0.0	0.0	2	0.0	0.0
	2	0.0	0.0	2	0.0	0.0
	2	0.0	0.0	2	0.0	0.0
	2	0.0	0.0	2	0.0	0.0
	2	0.0	0.0	2	148.16	0.0
	2	0.0	0.0	2	0.0	0.0
	2	0.0	0.0	2	0.0	0.0
	2	0.0	0.0	2	0.0	0.0
	2	0.0	0.0	2	0.0	0.0
	2	0.0	0.0	2	0.0	0.0
	2	0.0	0.0	2	0.0	0.0
	2	0.0	0.0	2	0.0	0.0
	2	0.0	0.0	2	0.0	0.0
	2	0.0	0.0	2	0.0	0.0
	2	0.0	0.0	2	0.0	0.0
	2	0.0	0.0	2	0.0	0.0
	2	0.0	0.0	2	0.0	0.0
	2	0.0	0.0	2	157.0	0.0
	2	0.0	0.0	2	157.0	0.0
	2	0.0	0.0	2	157.0	0.0
	2	0.0	0.0	2	157.0	0.0
	2	0.0	0.0	2	0.0	0.0
	2	0.0	0.0	2	0.0	0.0
...
];

